/*--------------------------------*- C++ -*----------------------------------*\
| =========                 |                                                 |
| \\      /  F ield         | OpenFOAM: The Open Source CFD Toolbox           |
|  \\    /   O peration     | Version:  v1706                                 |
|   \\  /    A nd           | Web:      www.OpenFOAM.org                      |
|    \\/     M anipulation  |                                                 |
\*---------------------------------------------------------------------------*/
FoamFile
{
    version     2.0;
    format      ascii;
    class       dictionary;
    location    "system";
    object      dsmcInitialiseDict;
}
// * * * * * * * * * * * * * * * * * * * * * * * * * * * * * * * * * * * * * //

configurations
(
    configuration
    {
        type                dsmcMeshFill;

        numberDensities
        {
            N2cold               7.2517775300383995e21;
		    };

		    translationalTemperature        9;
		    rotationalTemperature	    9;
		    vibrationalTemperature           9;
                    electronicTemperature            9;

		    velocity                 (720 0 0);
    } 
);

// ************************************************************************* //
